[JUNCTIONS]
;ID     Elevation  MaxDepth  InitDepth  SurDepth  Aponded
J1      0          0         0          0         0
J2      0          0         0          0         0

[CONDUITS]
;ID     From   To     Length  Roughness  InOffset  OutOffset  InitFlow  MaxFlow
C1      J1     J2     100     0.01       0         0         0         0

[COORDINATES]
;Node   X       Y
J1      100     100
J2      200     200
