[TITLE]
;; Sample SWMM input file

[RAINGAGES]
;Name Format Interval SCF Source
RG1   1      1:00     1.0 FILE

[JUNCTIONS]
;Name Elevation MaxDepth
J1    100      10
J2    102      11

[COORDINATES]
J1 -0.09 51.505
J2 -0.08 51.51

[VERTICES]
L1 -0.09 51.505
L1 -0.085 51.508
L1 -0.08 51.51
